tests/data/power_flow/pandapower/components/symmetric/pandapower-symmetric-sym_load/pgm_sym_output.json
{
  "line": [
    {
      "id": 3,
      "energized": 1,
      "loading": 0.0022803499275045372,
      "p_from": 30000.9827767453,
      "q_from": -28632.99519783975,
      "i_from": 2.2803499275045374,
      "s_from": 41471.76607729748,
      "p_to": -29998.65152917108,
      "q_to": -5999.7303057968165,
      "i_to": 1.6822401661460864,
      "s_to": 30592.74190573534
    }
  ],
  "node": [
    {
      "id": 1,
      "energized": 1,
      "u_pu": 1.000002550556721,
      "u": 10500.02678084557,
      "u_angle": -3.270109970873145e-06
    },
    {
      "id": 2,
      "energized": 1,
      "u_pu": 0.9999550502996886,
      "u": 10499.52802814673,
      "u_angle": -8.335437535447145e-05
    }
  ],
  "source": [
    {
      "id": 4,
      "energized": 1,
      "p": 30000.982776571764,
      "q": -28632.995200343186,
      "i": 2.280349927592673,
      "s": 41471.76607890037,
      "pf": 0.7234074073309212
    }
  ],
  "sym_load": [
    {
      "id": 6,
      "energized": 1,
      "p": 10000.0,
      "q": 2000.0,
      "i": 0.5607719282017252,
      "s": 10198.03902718557,
      "pf": 0.9805806756909201
    },
    {
      "id": 7,
      "energized": 1,
      "p": 9999.550502996886,
      "q": 1999.910100599377,
      "i": 0.5607467216716094,
      "s": 10197.580628387534,
      "pf": 0.9805806756909202
    },
    {
      "id": 8,
      "energized": 1,
      "p": 9999.101026198528,
      "q": 1999.8202052397053,
      "i": 0.5607215162745197,
      "s": 10197.122250194385,
      "pf": 0.9805806756909203
    },
    {
      "id": 9,
      "energized": 1,
      "p": -0.0,
      "q": -0.0,
      "i": 0.0,
      "s": 0.0,
      "pf": 0.0
    }
  ]
}